Circuit: * C:\users\ostoja\Desktop\Petnica\PEKG\simulations\NCS.asc

Early termination of direct N-R iteration.
Direct Newton iteration failed to find .op point.  (Use ".option noopiter" to skip.)
Starting Gmin stepping
Gmin = 10
Gmin = 1.07374
Gmin = 0.115292
Gmin = 0.0123794
Gmin = 0.00132923
Gmin = 0.000142725
Gmin = 1.5325e-005
Gmin = 1.6455e-006
Gmin = 1.76685e-007
Gmin = 1.89714e-008
Gmin = 2.03704e-009
Gmin = 2.18725e-010
Gmin = 2.34854e-011
Gmin = 2.52173e-012
Gmin = 2.70769e-013
Gmin = 0
Gmin stepping succeeded in finding the operating point.


Date: Sun Mar 30 09:44:38 2025
Total elapsed time: 2.442 seconds.

tnom = 27
temp = 27
method = trap
totiter = 45448
traniter = 45056
tranpoints = 22529
accept = 22529
rejected = 0
matrix size = 68
fillins = 158
solver = Normal
Thread vector: 8.8/4.9[8] 3.8/2.8[6] 1.5/1.7[1] 0.2/1.4[1]  2592/500
Matrix Compiler1: 11.86 KB object code size  1.6/0.8/[0.7]
Matrix Compiler2: 9.26 KB object code size  0.7/0.8/[0.4]

