Circuit: * C:\users\ostoja\Desktop\Petnica\PEKG\simulations\NCS_v2.asc

WARNING: Less than two connections to node 3.75V.  This node is used by V3.
WARNING: Less than two connections to node 1.25V.  This node is used by V4.
Early termination of direct N-R iteration.
Direct Newton iteration failed to find .op point.  (Use ".option noopiter" to skip.)
Starting Gmin stepping
Gmin = 10
vernier = 0.5
vernier = 0.25
vernier = 0.125
Gmin = 5.5165
vernier = 0.0625
vernier = 0.03125
vernier = 0.015625
vernier = 0.0078125
Gmin = 5.49501
vernier = 0.00390625
vernier = 0.00195313
vernier = 0.000976563
vernier = 0.000488281
Gmin = 5.50104
Gmin = 0
Gmin stepping failed

Starting source stepping with srcstepmethod=0
Source Step = 3.0303%
Source Step = 33.3333%
Source Step = 63.6364%
vernier = 0.25
Source Step = 62.3106%
Source Step = 64.2045%
Source Step = 66.0985%
Source Step = 67.9924%
Source Step = 69.8864%
vernier = 0.09375
Source Step = 72.5379%
Source Step = 75.3788%
Source Step = 78.2197%
Source Step = 81.0606%
Source Step = 83.9015%
vernier = 0.140625
Source Step = 87.7367%
Source Step = 91.9981%
Source Step = 96.2595%
Source stepping succeeded in finding the operating point.


Date: Mon Apr 07 22:49:02 2025
Total elapsed time: 2.419 seconds.

tnom = 27
temp = 27
method = trap
totiter = 82630
traniter = 80034
tranpoints = 40018
accept = 40018
rejected = 0
matrix size = 117
fillins = 518
solver = Normal
Thread vector: 7.4/4.0[8] 4.6/4.4[1] 2.2/2.5[1] 0.2/1.4[1]  2592/500
Matrix Compiler1:    2415 opcodes  4.5/2.1/[2.1]
Matrix Compiler2:    1356 opcodes
