Circuit: * Z:\home\ostoja\Petnica\PEKG\simulations\NCS_v2.asc

WARNING: Less than two connections to node 3.75V.  This node is used by V3.
WARNING: Less than two connections to node 1.25V.  This node is used by V4.
Early termination of direct N-R iteration.
Direct Newton iteration failed to find .op point.  (Use ".option noopiter" to skip.)
Starting Gmin stepping
Gmin = 10
vernier = 0.5
vernier = 0.25
vernier = 0.125
Gmin = 5.5165
vernier = 0.0625
vernier = 0.03125
vernier = 0.015625
vernier = 0.0078125
Gmin = 5.49501
vernier = 0.00390625
vernier = 0.00195313
vernier = 0.000976563
vernier = 0.000488281
Gmin = 5.50104
Gmin = 0
Gmin stepping failed

Starting source stepping with srcstepmethod=0
Source Step = 3.0303%
Source Step = 33.3333%
Source Step = 63.6364%
vernier = 0.25
Source Step = 60.6889%
Source Step = 60.8073%
Source Step = 60.9257%
Source Step = 61.044%
Source Step = 61.1624%
vernier = 0.00585938
Source Step = 61.3163%
Source Step = 61.4938%
Source Step = 61.6714%
Source Step = 61.849%
Source Step = 62.0265%
vernier = 0.00878906
Source Step = 62.2485%
Source Step = 62.5148%
Source Step = 62.7811%
Source Step = 63.0475%
Source Step = 63.3138%
vernier = 0.0131836
Source Step = 63.6334%
Source Step = 64.0329%
Source Step = 64.4324%
Source Step = 64.8319%
Source Step = 65.2314%
vernier = 0.0197754
Source Step = 65.6908%
Source Step = 66.2901%
Source Step = 66.8894%
Source Step = 67.4886%
Source Step = 68.0879%
vernier = 0.0296631
Source Step = 68.747%
Source Step = 69.6459%
Source Step = 70.5448%
Source Step = 71.4437%
Source Step = 72.3426%
vernier = 0.0444946
Source Step = 73.2864%
Source Step = 74.6347%
Source Step = 75.983%
Source Step = 77.3314%
Source Step = 78.6797%
Source Step = 80.028%
vernier = 0.0667419
Source Step = 82.0505%
Source Step = 84.073%
Source Step = 86.0955%
Source Step = 88.1179%
Source Step = 90.1404%
vernier = 0.100113
Source Step = 93.073%
Source Step = 96.1067%
Source Step = 99.1405%
Source stepping succeeded in finding the operating point.


Date: Mon Apr 07 21:12:59 2025
Total elapsed time: 11.619 seconds.

tnom = 27
temp = 27
method = modified trap
totiter = 83569
traniter = 80036
tranpoints = 40019
accept = 40019
rejected = 0
matrix size = 118
fillins = 523
solver = Normal
Thread vector: 37.3/22.3[5] 20.0/14.6[5] 6.7/5.5[4] 0.9/89.2[1]  2592/500
Matrix Compiler1: 45.24 KB object code size  14.3/7.8/[7.6]
Matrix Compiler2: 19.69 KB object code size  5.0/5.2/[1.3]

