Circuit: * C:\users\ostoja\Desktop\Petnica\PEKG\simulations\NCS_v2.asc

WARNING: Less than two connections to node 3.75V.  This node is used by V3.
WARNING: Less than two connections to node 1.25V.  This node is used by V4.
Early termination of direct N-R iteration.
Direct Newton iteration failed to find .op point.  (Use ".option noopiter" to skip.)
Starting Gmin stepping
Gmin = 10
vernier = 0.5
vernier = 0.25
vernier = 0.125
Gmin = 5.5165
vernier = 0.0625
vernier = 0.03125
vernier = 0.015625
vernier = 0.0078125
Gmin = 5.49501
vernier = 0.00390625
vernier = 0.00195313
vernier = 0.000976563
vernier = 0.000488281
Gmin = 5.50104
Gmin = 0
Gmin stepping failed

Starting source stepping with srcstepmethod=0
Source Step = 3.0303%
Source Step = 33.3333%
Source Step = 63.6364%
vernier = 0.25
Source Step = 60.6238%
Source Step = 60.6534%
Source Step = 60.683%
Source Step = 60.7126%
Source Step = 60.7422%
vernier = 0.00146484
Source Step = 60.7762%
Source Step = 60.8206%
Source Step = 60.865%
Source Step = 60.9094%
Source Step = 60.9538%
vernier = 0.00219727
Source Step = 61.0026%
Source Step = 61.0692%
Source Step = 61.1358%
Source Step = 61.2024%
Source Step = 61.2689%
vernier = 0.0032959
Source Step = 61.3389%
Source Step = 61.4387%
Source Step = 61.5386%
Source Step = 61.6385%
Source Step = 61.7384%
Source Step = 61.8382%
vernier = 0.00494385
Source Step = 61.988%
Source Step = 62.1379%
Source Step = 62.2877%
Source Step = 62.4375%
Source Step = 62.5873%
vernier = 0.00741577
Source Step = 62.8045%
Source Step = 63.0292%
Source Step = 63.254%
Source Step = 63.4787%
Source Step = 63.7034%
vernier = 0.0111237
Source Step = 64.018%
Source Step = 64.3551%
Source Step = 64.6922%
Source Step = 65.0293%
Source Step = 65.3663%
vernier = 0.0166855
Source Step = 65.8214%
Source Step = 66.327%
Source Step = 66.8326%
Source Step = 67.3383%
Source Step = 67.8439%
vernier = 0.0250282
Source Step = 68.5012%
Source Step = 69.2596%
Source Step = 70.0181%
Source Step = 70.7765%
Source Step = 71.5349%
vernier = 0.0375423
Source Step = 72.483%
Source Step = 73.6206%
Source Step = 74.7582%
Source Step = 75.8959%
Source Step = 77.0335%
vernier = 0.0563135
Source Step = 78.3987%
Source Step = 80.1052%
Source Step = 81.8117%
Source Step = 83.5181%
Source Step = 85.2246%
vernier = 0.0844703
Source Step = 87.187%
Source Step = 89.7467%
Source Step = 92.3064%
Source Step = 94.8662%
Source Step = 97.4259%
vernier = 0.126705
Source Step = 100%
Source stepping succeeded in finding the operating point.


Date: Sun Apr 06 21:40:08 2025
Total elapsed time: 2.542 seconds.

tnom = 27
temp = 27
method = trap
totiter = 84772
traniter = 80036
tranpoints = 40019
accept = 40019
rejected = 0
matrix size = 118
fillins = 527
solver = Normal
Thread vector: 11.4/5.9[8] 4.8/3.6[6] 2.0/3.1[1] 0.3/1.4[1]  2592/500
Matrix Compiler1:    2398 opcodes  4.7/2.1/[2.1]
Matrix Compiler2:    1371 opcodes
