Circuit: * C:\users\ostoja\Desktop\Petnica\PEKG\simulations\NCS_v2.asc

WARNING: Less than two connections to node 3.75V.  This node is used by V3.
WARNING: Less than two connections to node 1.25V.  This node is used by V4.
Early termination of direct N-R iteration.
Direct Newton iteration failed to find .op point.  (Use ".option noopiter" to skip.)
Starting Gmin stepping
Gmin = 10
vernier = 0.5
vernier = 0.25
vernier = 0.125
Gmin = 5.5165
vernier = 0.0625
vernier = 0.03125
vernier = 0.015625
vernier = 0.0078125
Gmin = 5.49501
vernier = 0.00390625
vernier = 0.00195313
vernier = 0.000976563
vernier = 0.000488281
Gmin = 5.50104
Gmin = 0
Gmin stepping failed

Starting source stepping with srcstepmethod=0
Source Step = 3.0303%
Source Step = 33.3333%
Source Step = 63.6364%
vernier = 0.25
Source Step = 60.9848%
Source Step = 61.4583%
Source Step = 61.9318%
Source Step = 62.4053%
Source Step = 62.8788%
vernier = 0.0234375
Source Step = 63.518%
Source Step = 64.2282%
Source Step = 64.9384%
Source Step = 65.6487%
Source Step = 66.3589%
vernier = 0.0351563
Source Step = 67.2822%
Source Step = 68.3475%
Source Step = 69.4129%
Source Step = 70.4782%
Source Step = 71.5436%
vernier = 0.0527344
Source Step = 72.8752%
Source Step = 74.4732%
Source Step = 76.0713%
Source Step = 77.6693%
Source Step = 79.2673%
vernier = 0.0791016
Source Step = 81.1849%
Source Step = 83.5819%
Source Step = 85.9789%
Source Step = 88.3759%
Source Step = 90.773%
vernier = 0.118652
Source Step = 93.5295%
Source Step = 97.1251%
Source stepping succeeded in finding the operating point.


Date: Sun Mar 30 10:03:15 2025
Total elapsed time: 3.523 seconds.

tnom = 27
temp = 27
method = trap
totiter = 52206
traniter = 49152
tranpoints = 24577
accept = 24577
rejected = 0
matrix size = 92
fillins = 454
solver = Normal
Thread vector: 9.2/4.2[8] 3.2/4.3[1] 1.4/2.6[1] 0.2/1.4[1]  2592/500
Matrix Compiler1:    2343 opcodes  4.0/[1.6]/3.3
Matrix Compiler2: 16.48 KB object code size  0.9/1.1/[0.7]

