Circuit: * C:\users\ostoja\Desktop\Petnica\PEKG\TL072.asc

Early termination of direct N-R iteration.
Direct Newton iteration failed to find .op point.  (Use ".option noopiter" to skip.)
Starting Gmin stepping
Gmin = 10
vernier = 0.5
vernier = 0.25
vernier = 0.125
Gmin = 5.5165
vernier = 0.0625
vernier = 0.03125
vernier = 0.015625
vernier = 0.0078125
Gmin = 5.49501
vernier = 0.00390625
vernier = 0.00195313
vernier = 0.000976563
vernier = 0.000488281
Gmin = 5.50104
Gmin = 0
Gmin stepping succeeded in finding the operating point.


Date: Sun Mar 30 08:55:03 2025
Total elapsed time: 3.959 seconds.

tnom = 27
temp = 27
method = trap
totiter = 318905
traniter = 317442
tranpoints = 158722
accept = 158721
rejected = 1
matrix size = 107
fillins = 878
solver = Normal
Matrix Compiler1: 88.85 KB object code size  6.8/2.9/[3.1]
Matrix Compiler2: 23.91 KB object code size  2.1/1.3/[1.0]

